.model EndOfStdLib NPN(mfg=StartOfCopirateNpnBjt)
