.model FZT690B ako: FCX690B NPN( Vceo=45 Icrating=3 mfg=Zetex)
