.model PH_BC557C ako: BC557B PNP(Vceo=45 Icrating=100m mfg=Philips)
