.model ZTX690B ako: FCX690B NPN( Vceo=45 Icrating=2 mfg=Zetex)
