.model ZTX869 ako: FZT869 NPN(Vceo=25 Icrating=5 mfg=Zetex)
