* Modelos variantes para 2SC3281:
*2SC3281 MCE 5/13/95
*Si 150W 200V 15A 30MHz pkg:TO-247 2,1,3
.MODEL 2SC3281_v1 NPN(IS=10.000E-15 BF=155.65 VAF=100 IKF=9.2028 XTB=1.5
+ISE=54.325E-15 NE=1.3056 BR=10.787 VAR=100 IKR=1.8561 ISC=106.69E-15 
+NC=1.6728 RC=26.745E-3 CJE=2.0000E-12 CJC=534.41E-12 
+MJC=.33333 TF=8.0821E-9 XTF=3.1968 VTF=21.461E-3 ITF=169.59 TR=187.91E-9 )

* Modelos variantes para 2SA1302:
*2SA1302
*Si 150W 200V 15A 30MHz pkg:TO-247
.MODEL 2SA1302_v1 PNP( IS=21.479E-12 BF=136.48 VAF=100 IKF=19.980 ISE=21.504E-12
+NE=1.3784 BR=329.48 VAR=100 IKR=19.980 ISC=4.3670E-9 NC=1.4264 RC=93.301E-3 
+CJE=755.31E-12 MJE=.33333 CJC=1.1417E-9 MJC=.33333 TF=1.2802E-9 XTF=10 VTF=10 
+ITF=1 TR=10.000E-9)


* 2SC3281 MCE 5/13/95 
* Si 150W 200V 15A 30 MHz pkg: TO-247 2,1,3. 
.MODEL 2SC3281_v2 NPN (IS=10000E-15 BF=155.65 VAF=100 IKF=9.2028 XTB=1.5
+ISE=54.325E-15 NE=1.3056 BR=10.787 VAR=100 IKR=1.8561 ISC=106.69E-15
+NF=1.6728 RC=26.745E-3 CJE=2.0000E-12 CJC=534.41E-12
+MJC=0.33333 TF=8.0821E-9 XTF=3.1968 VTF=21.461E-3 ITF=169.59 TR=187.91E-9)

* 2SA1302 
* Si 150W 200V 15A 30 MHz pkg: TO-247. 
.MODEL 2SA1302_v2 PNP (IS=21.479E-12 BF=136.48 VAF=100 IKF=19.980 ISE=21.504E-12
+NE=1.3784 BR=329.48 VAR=100 IKR=19.980 ISC=4.3670E-9 NC=1.4264 RC=93.301E-3
+CJE=755.31E-12 MJE=.33333 CJC=1.1417E-9 MJC=0.3333 TF=1.2802E-9 XTF=10 VTF=10
+ITF=1 TR=10000E-9)

* MJL3281A
.MODEL MJL3281A NPN (IS=6.5498e-11 BF=139.247 NF=1.00176 VAF=46.776
+IKF=10 ISE=7.75232e-12 NE=3.34341 BR=4.98985
+NR=1.09511 VAR=4.32026 IKR=4.37516 ISC=3.25e-13
+NC=3.96875 RB=11.988 IRB=0.117742 RBM=0.102914
+RE=0.00127227 RC=0.209833 XTB=0.115253 XTI=1.03146
+EG=1.11986 CJE=1e-07 VJE=0.4 MJE=0.450375
+TF=7.04629e-10 XTF=1000 VTF=2.06045 ITF=41.8156
+CJC=5e-10 VJC=0.4 MJC=0.85 XCJC=0.959922
+FC=0.1 CJS=0 VJS=0.75 MJS=0.5
+TR=1e-07 PTF=0 KF=0 AF=1)

* MJL1302A 
.MODEL MJL1302A PNP
+ IS = 3,25053e-12 BF = 60,3363 NF = 0,992063 VAF = 19,8199 
+ IKF = 7,18352 ISE = 3,25712e-12 NE = 3,42487 BR = 5,15499 
+ NR = 1,03617 VAR = 2,77736 IKR = 9,38159 ISC = 2.5e-13
+ NC = 3,89405 RB = 0,776136 IRB = 0,0998107 RBM = 0,776136 
+ RE = 0,000613663 RC = 0,0424163 XTB = 1,43773 XTI = 1 
+ EG = 1,05 CJE = 1,57135e-08 VJE = 0,728073 MJE = 0,42161 
+ TF = 2,63264e-09 XTF = 1000 VTF = 4,11586 ITF = 266,249 
+ CJC = 1,79861e-09 VJC = 0,814822 MJC = 0,473271 XCJC = 1 
+ FC = 0,8 CJS = 0 VJS = 0,75 MJS = 0,5 
+ TR = 1e-07 PTF = 0 KF = 0 AF = 1