.model PZT3906 ako: 2N3906 PNP(Vceo=40 Icrating=200m mfg=Philips)
