.model FJPF5027 ako: KSC5027 NPN(Vceo=800 Icrating=10 mfg=fairchild)
