.model FZT790A ako: FCX790A pnp( Vceo=45 Icrating=3 mfg=Zetex)
