.model EndOfStd_Lib PNP(mfg=StartOfCopiratePnpBjt)
