.model mp26a ako: mp25a PNP(mfg=GERMANIUM_USSR)
