.model EndOfEPpwBjt PNP(mfg=StartOfMiscPnpBjt)
