.model EndOfEPpwrBjt NPN(mfg=StartOfMiscNpnBjt)
